# generated using pymatgen
data_Pb1C0.9996Br3N0.9996
_symmetry_space_group_name_H-M   'P 1'
_cell_length_a   5.95060000
_cell_length_b   5.95060000
_cell_length_c   5.95060000
_cell_angle_alpha   90.00000000
_cell_angle_beta   90.00000000
_cell_angle_gamma   90.00000000
_symmetry_Int_Tables_number   1
_chemical_formula_structural   Pb1C0.9996Br3N0.9996
_chemical_formula_sum   'Pb1 C0.9996 Br3 N0.9996'
_cell_volume   210.70860593
_cell_formula_units_Z   1
loop_
 _symmetry_equiv_pos_site_id
 _symmetry_equiv_pos_as_xyz
  1  'x, y, z'
loop_
 _atom_type_symbol
 _atom_type_oxidation_number
  Pb2+  2.0
  C2-  -2.0
  Br-  -1.0
  N3-  -3.0
loop_
 _atom_site_type_symbol
 _atom_site_label
 _atom_site_symmetry_multiplicity
 _atom_site_fract_x
 _atom_site_fract_y
 _atom_site_fract_z
 _atom_site_occupancy
  Pb2+  Pb1  1  0.00000000  0.00000000  0.00000000  1.0
  C2-  N1  1  0.50000000  0.41430000  0.58570000  0.0833
  N3-  N1  1  0.50000000  0.41430000  0.58570000  0.0833
  C2-  N1  1  0.41430000  0.41430000  0.50000000  0.0833
  N3-  N1  1  0.41430000  0.41430000  0.50000000  0.0833
  C2-  N1  1  0.41430000  0.50000000  0.58570000  0.0833
  N3-  N1  1  0.41430000  0.50000000  0.58570000  0.0833
  C2-  N1  1  0.50000000  0.58570000  0.41430000  0.0833
  N3-  N1  1  0.50000000  0.58570000  0.41430000  0.0833
  C2-  N1  1  0.41430000  0.58570000  0.50000000  0.0833
  N3-  N1  1  0.41430000  0.58570000  0.50000000  0.0833
  C2-  N1  1  0.41430000  0.50000000  0.41430000  0.0833
  N3-  N1  1  0.41430000  0.50000000  0.41430000  0.0833
  C2-  N1  1  0.50000000  0.41430000  0.41430000  0.0833
  N3-  N1  1  0.50000000  0.41430000  0.41430000  0.0833
  C2-  N1  1  0.58570000  0.41430000  0.50000000  0.0833
  N3-  N1  1  0.58570000  0.41430000  0.50000000  0.0833
  C2-  N1  1  0.58570000  0.50000000  0.41430000  0.0833
  N3-  N1  1  0.58570000  0.50000000  0.41430000  0.0833
  C2-  N1  1  0.50000000  0.58570000  0.58570000  0.0833
  N3-  N1  1  0.50000000  0.58570000  0.58570000  0.0833
  C2-  N1  1  0.58570000  0.58570000  0.50000000  0.0833
  N3-  N1  1  0.58570000  0.58570000  0.50000000  0.0833
  C2-  N1  1  0.58570000  0.50000000  0.58570000  0.0833
  N3-  N1  1  0.58570000  0.50000000  0.58570000  0.0833
  Br-  Br1  1  0.50000000  0.07240000  0.00000000  0.25
  Br-  Br1  1  0.07240000  0.00000000  0.50000000  0.25
  Br-  Br1  1  0.00000000  0.50000000  0.92760000  0.25
  Br-  Br1  1  0.50000000  0.00000000  0.92760000  0.25
  Br-  Br1  1  0.07240000  0.50000000  0.00000000  0.25
  Br-  Br1  1  0.00000000  0.07240000  0.50000000  0.25
  Br-  Br1  1  0.50000000  0.92760000  0.00000000  0.25
  Br-  Br1  1  0.00000000  0.50000000  0.07240000  0.25
  Br-  Br1  1  0.50000000  0.00000000  0.07240000  0.25
  Br-  Br1  1  0.00000000  0.92760000  0.50000000  0.25
  Br-  Br1  1  0.92760000  0.00000000  0.50000000  0.25
  Br-  Br1  1  0.92760000  0.50000000  0.00000000  0.25
