# generated using pymatgen
data_PbCI3N
_symmetry_space_group_name_H-M   'P 1'
_cell_length_a   7.91362000
_cell_length_b   7.91362000
_cell_length_c   9.13004000
_cell_angle_alpha   90.00000000
_cell_angle_beta   90.00000000
_cell_angle_gamma   90.00000000
_symmetry_Int_Tables_number   1
_chemical_formula_structural   PbCI3N
_chemical_formula_sum   'Pb1 C1 I3 N1'
_cell_volume   571.77223815
_cell_formula_units_Z   1
loop_
 _symmetry_equiv_pos_site_id
 _symmetry_equiv_pos_as_xyz
  1  'x, y, z'
loop_
 _atom_type_symbol
 _atom_type_oxidation_number
  Pb2+  2.0
  C2-  -2.0
  I-  -1.0
  N3-  -3.0
loop_
 _atom_site_type_symbol
 _atom_site_label
 _atom_site_symmetry_multiplicity
 _atom_site_fract_x
 _atom_site_fract_y
 _atom_site_fract_z
 _atom_site_occupancy
  Pb2+  Pb1  1  0.50000000  0.50000000  0.50813000  1.0
  C2-  C1  1  0.00000000  0.00000000  0.89900000  1.0
  I-  I1  1  0.00000000  0.50000000  0.51220000  1.0
  I-  I1  1  0.50000000  0.00000000  0.51220000  1.0
  I-  I2  1  0.50000000  0.50000000  0.99940000  1.0
  N3-  N1  1  0.00000000  0.00000000  0.11800000  1.0
